Version 4
SHEET 1 1092 680
WIRE 608 -320 -336 -320
WIRE -160 -256 -224 -256
WIRE -336 -208 -336 -320
WIRE -304 -208 -336 -208
WIRE -288 -208 -304 -208
WIRE -224 -208 -224 -256
WIRE -96 -208 -96 -256
WIRE -96 -208 -144 -208
WIRE -224 -192 -224 -208
WIRE -96 -192 -96 -208
WIRE -96 -192 -144 -192
WIRE -176 -160 -192 -160
WIRE -224 -144 -224 -192
WIRE 608 -144 608 -320
WIRE 1088 -144 608 -144
WIRE -96 -128 -96 -192
WIRE -96 -128 -160 -128
WIRE 64 -128 -96 -128
WIRE 112 -128 64 -128
WIRE -224 -112 -288 -112
WIRE -224 -96 -224 -112
WIRE 64 -80 64 -128
WIRE -176 0 -176 -160
WIRE -96 0 -176 0
WIRE 512 48 -128 48
WIRE 864 48 864 -16
WIRE 864 48 720 48
WIRE 880 48 864 48
WIRE 944 48 944 32
WIRE 1088 64 1088 -144
WIRE 1088 64 992 64
WIRE 400 80 384 80
WIRE 464 80 400 80
WIRE 592 80 544 80
WIRE 0 96 -64 96
WIRE 16 96 0 96
WIRE 48 112 32 112
WIRE 320 112 320 80
WIRE 320 112 176 112
WIRE 336 112 320 112
WIRE 512 112 512 48
WIRE 592 112 512 112
WIRE 608 112 592 112
WIRE 400 128 400 80
WIRE -288 144 -288 -112
WIRE -240 144 -288 144
WIRE -176 144 -240 144
WIRE -64 144 -64 96
WIRE -64 144 -176 144
WIRE 16 144 16 96
WIRE 48 144 16 144
WIRE 320 144 288 144
WIRE 336 144 320 144
WIRE 464 144 464 80
WIRE 720 144 656 144
WIRE -128 176 -128 48
WIRE -128 176 -464 176
WIRE -96 176 -128 176
WIRE -80 176 -96 176
WIRE 48 176 0 176
WIRE 544 192 544 80
WIRE 656 192 656 144
WIRE 656 192 544 192
WIRE -16 208 -16 -80
WIRE 48 208 -16 208
WIRE -96 256 -144 256
WIRE 592 288 464 288
WIRE -16 320 -48 320
WIRE 112 320 112 -128
WIRE 112 320 64 320
WIRE -240 352 -240 144
WIRE -96 352 -240 352
FLAG 368 160 0
FLAG -96 80 0
FLAG -96 0 Vdd
IOPIN -96 0 BiDir
FLAG 368 96 Vdd
IOPIN 368 96 BiDir
FLAG 176 144 Vdd
IOPIN 176 144 BiDir
FLAG 320 224 Vdd
IOPIN 320 224 BiDir
FLAG 288 224 0
FLAG -176 224 0
FLAG -592 16 0
FLAG -592 -64 Vmod
IOPIN -592 -64 BiDir
FLAG -656 256 0
FLAG -528 256 0
FLAG -656 176 Vcarrier
IOPIN -656 176 BiDir
FLAG -192 -96 0
FLAG 624 128 0
FLAG 624 64 Vdd
IOPIN 624 64 BiDir
FLAG 720 224 0
FLAG 720 -32 Vdd
IOPIN 720 -32 BiDir
FLAG 944 112 0
FLAG 992 -32 Vdd
IOPIN 992 -32 BiDir
FLAG 992 144 0
FLAG 464 368 0
FLAG -16 400 0
SYMBOL AutoGenerated\\HALF13700 112 160 R0
SYMATTR InstName U1
SYMBOL Opamps\\OP07 368 64 R0
SYMATTR InstName U2
SYMBOL voltage -96 -16 R0
WINDOW 123 0 0 Left 0
WINDOW 39 0 0 Left 0
SYMATTR InstName V1
SYMATTR Value 9
SYMBOL res 304 128 R0
SYMATTR InstName R1
SYMATTR Value 10k
SYMBOL res 272 128 R0
SYMATTR InstName R2
SYMATTR Value 10k
SYMBOL res 416 64 R90
WINDOW 0 0 56 VBottom 2
WINDOW 3 32 56 VTop 2
SYMATTR InstName R3
SYMATTR Value 20k
SYMBOL voltage -176 128 R0
WINDOW 123 0 0 Left 0
WINDOW 39 0 0 Left 0
SYMATTR InstName V3
SYMATTR Value 4.5
SYMBOL res 16 160 R90
WINDOW 0 0 56 VBottom 2
WINDOW 3 32 56 VTop 2
SYMATTR InstName R4
SYMATTR Value 51k
SYMBOL res 16 192 R180
WINDOW 0 36 76 Left 2
WINDOW 3 36 40 Left 2
SYMATTR InstName R5
SYMATTR Value 1k
SYMBOL res 80 -96 R90
WINDOW 0 0 56 VBottom 2
WINDOW 3 32 56 VTop 2
SYMATTR InstName R7
SYMATTR Value 20k
SYMBOL voltage -592 -80 R0
WINDOW 123 0 0 Left 0
WINDOW 39 0 0 Left 0
SYMATTR InstName V5
SYMATTR Value PULSE(0 3 0 1 0.01 0.2)
SYMBOL voltage -656 160 R0
WINDOW 123 0 0 Left 0
WINDOW 39 0 0 Left 0
SYMATTR InstName V6
SYMATTR Value SINE(0 0.5 300)
SYMBOL bv -528 160 R0
SYMATTR InstName B1
SYMATTR Value V=V(Vcarrier)*V(Vmod)
SYMBOL cap -464 160 R90
WINDOW 0 0 32 VBottom 2
WINDOW 3 32 32 VTop 2
SYMATTR InstName C2
SYMATTR Value 10µ
SYMBOL Opamps\\UniversalOpamp2 -192 -128 R0
SYMATTR InstName U3
SYMBOL res -208 -224 R90
WINDOW 0 0 56 VBottom 2
WINDOW 3 32 56 VTop 2
SYMATTR InstName R9
SYMATTR Value 10k
SYMBOL res -128 -224 R90
WINDOW 0 0 56 VBottom 2
WINDOW 3 32 56 VTop 2
SYMATTR InstName R10
SYMATTR Value {Rf}
SYMBOL Opamps\\UniversalOpamp2 624 96 R0
SYMATTR InstName U4
SYMBOL npn 656 48 R0
SYMATTR InstName Q1
SYMBOL res 704 128 R0
SYMATTR InstName R8
SYMATTR Value 10k
SYMBOL res 704 -48 R0
SYMATTR InstName R11
SYMATTR Value 10k
SYMBOL res 960 32 R90
WINDOW 0 0 56 VBottom 2
WINDOW 3 32 56 VTop 2
SYMATTR InstName R12
SYMATTR Value 5k
SYMBOL cap 928 48 R0
SYMATTR InstName C1
SYMATTR Value 1µ
SYMBOL njf 944 -32 R0
SYMATTR InstName J1
SYMBOL res 976 48 R0
SYMATTR InstName R13
SYMATTR Value 10k
SYMBOL schottky 928 -16 R0
SYMATTR InstName D1
SYMATTR Value 1N5817
SYMATTR Description Diode
SYMATTR Type diode
SYMBOL cap -96 -272 R90
WINDOW 0 0 32 VBottom 2
WINDOW 3 32 32 VTop 2
SYMATTR InstName C3
SYMATTR Value 100n
SYMBOL res 960 -32 R90
WINDOW 0 0 56 VBottom 2
WINDOW 3 32 56 VTop 2
SYMATTR InstName R14
SYMATTR Value 470
SYMBOL cap 448 144 R0
SYMATTR InstName C4
SYMATTR Value 10µ
SYMBOL res 448 192 R0
SYMATTR InstName R15
SYMATTR Value 1k
SYMBOL res 448 272 R0
SYMATTR InstName R16
SYMATTR Value 100k
SYMBOL res -128 -208 R90
WINDOW 0 0 56 VBottom 2
WINDOW 3 32 56 VTop 2
SYMATTR InstName R6
SYMATTR Value 51k
SYMBOL res -112 160 R0
SYMATTR InstName R17
SYMATTR Value 470k
SYMBOL res 80 304 R90
WINDOW 0 0 56 VBottom 2
WINDOW 3 32 56 VTop 2
SYMATTR InstName R18
SYMATTR Value 1000k
SYMBOL res 0 240 R90
WINDOW 0 0 56 VBottom 2
WINDOW 3 32 56 VTop 2
SYMATTR InstName R19
SYMATTR Value 1000k
SYMBOL cap -32 256 R0
SYMATTR InstName C5
SYMATTR Value 100n
SYMBOL res -32 304 R0
SYMATTR InstName R20
SYMATTR Value 2000k
SYMBOL pjf -48 256 M0
SYMATTR InstName J2
SYMATTR Value 2N5114
TEXT -208 336 Left 2 !.tran 1
TEXT -728 -272 Left 2 !.step param Rf 1k 100k 10k
