Version 4
SHEET 1 2704 932
WIRE 608 -128 544 -128
WIRE 2000 -128 608 -128
WIRE 608 -32 608 -128
WIRE 608 -32 512 -32
WIRE 624 -32 608 -32
WIRE 2000 -32 2000 -128
WIRE 2624 48 2000 48
WIRE 608 144 464 144
WIRE 912 144 784 144
WIRE 608 176 608 144
WIRE 624 176 624 -32
WIRE 624 176 608 176
WIRE 656 176 624 176
WIRE 912 176 912 144
WIRE 1392 176 1264 176
WIRE 432 208 432 176
WIRE 608 208 544 208
WIRE 656 208 608 208
WIRE 960 208 912 208
WIRE 1008 208 960 208
WIRE 1136 208 1088 208
WIRE 1392 208 1392 176
WIRE 2032 208 1904 208
WIRE 1008 240 1008 208
WIRE 1104 240 1088 240
WIRE 1136 240 1104 240
WIRE 1488 240 1488 48
WIRE 1488 240 1440 240
WIRE 1504 240 1488 240
WIRE 1520 240 1504 240
WIRE 1776 240 1728 240
WIRE 2032 240 2032 208
WIRE 2512 240 2384 240
WIRE 1600 272 1600 240
WIRE 1616 272 1600 272
WIRE 1728 272 1616 272
WIRE 1776 272 1728 272
WIRE 2080 272 2016 272
WIRE 2128 272 2080 272
WIRE 2256 272 2208 272
WIRE 2512 272 2512 240
WIRE 912 288 912 272
WIRE 2128 304 2128 272
WIRE 2240 304 2208 304
WIRE 2256 304 2240 304
WIRE 2624 304 2624 48
WIRE 2624 304 2560 304
WIRE 912 336 912 288
WIRE 928 336 912 336
WIRE 1504 368 1504 240
WIRE 2016 400 2016 272
WIRE 1504 448 1504 432
WIRE 544 464 544 208
WIRE 544 464 528 464
WIRE 928 464 928 336
WIRE 928 464 544 464
WIRE 1104 464 1104 240
WIRE 1504 464 1504 448
WIRE 1504 464 1104 464
WIRE 2624 464 2624 304
WIRE 544 480 544 464
WIRE 928 480 928 464
WIRE 1616 480 1616 272
WIRE 2016 480 1616 480
WIRE 2240 544 2240 304
WIRE 2624 544 2240 544
WIRE 1024 656 896 656
WIRE 656 688 624 688
WIRE 768 688 720 688
WIRE 1024 688 1024 656
WIRE 544 720 544 688
WIRE 656 720 656 688
WIRE 720 720 656 720
WIRE 768 720 720 720
WIRE 1072 720 1024 720
WIRE 624 928 624 768
WIRE 1024 928 1024 720
WIRE 1024 928 624 928
FLAG 384 224 0
FLAG 448 0 0
FLAG 352 0 0
FLAG 352 -80 Vdd
IOPIN 352 -80 BiDir
FLAG 784 176 Vdd
IOPIN 784 176 BiDir
FLAG 448 -80 V5
IOPIN 448 -80 BiDir
FLAG 608 96 V5
IOPIN 608 96 BiDir
FLAG 608 288 V5
IOPIN 608 288 BiDir
FLAG 784 80 0
FLAG 960 112 Vdd
IOPIN 960 112 BiDir
FLAG 960 288 0
FLAG 1264 208 Vdd
IOPIN 1264 208 BiDir
FLAG 1088 128 V5
IOPIN 1088 128 BiDir
FLAG 1088 320 V5
IOPIN 1088 320 BiDir
FLAG 1264 112 0
FLAG 1440 144 Vdd
IOPIN 1440 144 BiDir
FLAG 1440 320 0
FLAG 656 400 0
FLAG 1136 432 0
FLAG 544 800 0
FLAG 896 688 Vdd
IOPIN 896 688 BiDir
FLAG 720 608 V5
IOPIN 720 608 BiDir
FLAG 720 800 V5
IOPIN 720 800 BiDir
FLAG 896 592 0
FLAG 1072 624 Vdd
IOPIN 1072 624 BiDir
FLAG 768 912 0
FLAG 1072 800 0
FLAG 1904 240 Vdd
IOPIN 1904 240 BiDir
FLAG 1728 160 V5
IOPIN 1728 160 BiDir
FLAG 1728 352 V5
IOPIN 1728 352 BiDir
FLAG 1904 144 0
FLAG 2080 176 Vdd
IOPIN 2080 176 BiDir
FLAG 2080 352 0
FLAG 2384 272 Vdd
IOPIN 2384 272 BiDir
FLAG 2208 192 V5
IOPIN 2208 192 BiDir
FLAG 2208 384 V5
IOPIN 2208 384 BiDir
FLAG 2384 176 0
FLAG 2560 208 Vdd
IOPIN 2560 208 BiDir
FLAG 2560 384 0
FLAG 1776 464 0
FLAG 2256 496 0
SYMBOL voltage 352 -96 R0
WINDOW 123 0 0 Left 0
WINDOW 39 0 0 Left 0
SYMATTR InstName V1
SYMATTR Value 9
SYMBOL voltage 448 -96 R0
WINDOW 123 0 0 Left 0
WINDOW 39 0 0 Left 0
SYMATTR InstName V2
SYMATTR Value 5
SYMBOL voltage 384 128 R0
WINDOW 123 24 124 Left 2
WINDOW 39 0 0 Left 0
SYMATTR Value2 AC 1
SYMATTR InstName V3
SYMATTR Value PULSE(4 6 1m 0 0 1m 2m)
SYMBOL AutoGenerated\\HALF13700 720 192 R0
SYMATTR InstName U2
SYMBOL res 624 304 R180
WINDOW 0 36 76 Left 2
WINDOW 3 36 40 Left 2
SYMATTR InstName R1
SYMATTR Value 470
SYMBOL res 624 192 R180
WINDOW 0 36 76 Left 2
WINDOW 3 36 40 Left 2
SYMATTR InstName R2
SYMATTR Value 470
SYMBOL res 640 224 R0
SYMATTR InstName R4
SYMATTR Value 20k
SYMBOL cap 768 80 R0
SYMATTR InstName C1
SYMATTR Value {Cap}
SYMBOL njf 912 112 R0
SYMATTR InstName J1
SYMATTR Value 2N5484
SYMBOL res 944 192 R0
WINDOW 3 9 207 Left 2
SYMATTR InstName R6
SYMATTR Value 10k
SYMBOL res 480 128 R90
WINDOW 0 0 56 VBottom 2
WINDOW 3 32 56 VTop 2
SYMATTR InstName R3
SYMATTR Value 100k
SYMBOL AutoGenerated\\HALF13700 1200 224 R0
SYMATTR InstName U1
SYMBOL res 1104 336 R180
WINDOW 0 36 76 Left 2
WINDOW 3 36 40 Left 2
SYMATTR InstName R8
SYMATTR Value 470
SYMBOL res 1104 224 R180
WINDOW 0 36 76 Left 2
WINDOW 3 36 40 Left 2
SYMATTR InstName R9
SYMATTR Value 470
SYMBOL res 1120 256 R0
SYMATTR InstName R10
SYMATTR Value 20k
SYMBOL cap 1248 112 R0
SYMATTR InstName C2
SYMATTR Value {Cap}
SYMBOL njf 1392 144 R0
SYMATTR InstName J2
SYMATTR Value 2N5484
SYMBOL res 1424 224 R0
SYMATTR InstName R11
SYMATTR Value 10k
SYMBOL res 1104 224 R90
WINDOW 0 0 56 VBottom 2
WINDOW 3 32 56 VTop 2
SYMATTR InstName R12
SYMATTR Value 100k
SYMBOL voltage 656 304 R0
WINDOW 123 0 0 Left 0
WINDOW 39 0 0 Left 0
SYMATTR InstName V4
SYMATTR Value {Vctrl}
SYMBOL voltage 1136 336 R0
WINDOW 123 0 0 Left 0
WINDOW 39 0 0 Left 0
SYMATTR InstName V5
SYMATTR Value {Vctrl}
SYMBOL res 1472 -48 R0
SYMATTR InstName R7
SYMATTR Value 100k
SYMBOL voltage 544 704 R0
WINDOW 123 24 124 Left 2
WINDOW 39 0 0 Left 0
SYMATTR Value2 AC 1
SYMATTR InstName V9
SYMATTR Value PULSE(4 6 1m 0 0 1m 2m)
SYMBOL AutoGenerated\\HALF13700 832 704 R0
SYMATTR InstName U5
SYMBOL res 736 816 R180
WINDOW 0 36 76 Left 2
WINDOW 3 36 40 Left 2
SYMATTR InstName R25
SYMATTR Value 470
SYMBOL res 736 704 R180
WINDOW 0 36 76 Left 2
WINDOW 3 36 40 Left 2
SYMATTR InstName R26
SYMATTR Value 470
SYMBOL res 752 736 R0
SYMATTR InstName R27
SYMATTR Value 20k
SYMBOL cap 880 592 R0
SYMATTR InstName C5
SYMATTR Value {Cap}
SYMBOL njf 1024 624 R0
SYMATTR InstName J5
SYMBOL res 640 672 R90
WINDOW 0 0 56 VBottom 2
WINDOW 3 32 56 VTop 2
SYMATTR InstName R28
SYMATTR Value 100k
SYMBOL res 640 784 R180
WINDOW 0 36 76 Left 2
WINDOW 3 36 40 Left 2
SYMATTR InstName R29
SYMATTR Value 100k
SYMBOL voltage 768 816 R0
WINDOW 123 0 0 Left 0
WINDOW 39 0 0 Left 0
SYMATTR InstName V10
SYMATTR Value {Vctrl}
SYMBOL res 1056 704 R0
SYMATTR InstName R30
SYMATTR Value 10k
SYMBOL AutoGenerated\\HALF13700 1840 256 R0
SYMATTR InstName U3
SYMBOL res 1744 368 R180
WINDOW 0 36 76 Left 2
WINDOW 3 36 40 Left 2
SYMATTR InstName R13
SYMATTR Value 470
SYMBOL res 1744 256 R180
WINDOW 0 36 76 Left 2
WINDOW 3 36 40 Left 2
SYMATTR InstName R14
SYMATTR Value 470
SYMBOL res 1760 288 R0
SYMATTR InstName R15
SYMATTR Value 20k
SYMBOL cap 1888 144 R0
SYMATTR InstName C3
SYMATTR Value {Cap}
SYMBOL njf 2032 176 R0
SYMATTR InstName J3
SYMATTR Value 2N5484
SYMBOL res 2064 256 R0
SYMATTR InstName R16
SYMATTR Value 10k
SYMBOL AutoGenerated\\HALF13700 2320 288 R0
SYMATTR InstName U4
SYMBOL res 2224 400 R180
WINDOW 0 36 76 Left 2
WINDOW 3 36 40 Left 2
SYMATTR InstName R18
SYMATTR Value 470
SYMBOL res 2224 288 R180
WINDOW 0 36 76 Left 2
WINDOW 3 36 40 Left 2
SYMATTR InstName R19
SYMATTR Value 470
SYMBOL res 2240 320 R0
SYMATTR InstName R20
SYMATTR Value 20k
SYMBOL cap 2368 176 R0
SYMATTR InstName C4
SYMATTR Value {Cap}
SYMBOL njf 2512 208 R0
SYMATTR InstName J4
SYMATTR Value 2N5484
SYMBOL res 2544 288 R0
SYMATTR InstName R21
SYMATTR Value 10k
SYMBOL res 2224 288 R90
WINDOW 0 0 56 VBottom 2
WINDOW 3 32 56 VTop 2
SYMATTR InstName R22
SYMATTR Value 100k
SYMBOL voltage 1776 368 R0
WINDOW 123 0 0 Left 0
WINDOW 39 0 0 Left 0
SYMATTR InstName V6
SYMATTR Value {Vctrl}
SYMBOL voltage 2256 400 R0
WINDOW 123 0 0 Left 0
WINDOW 39 0 0 Left 0
SYMATTR InstName V7
SYMATTR Value {Vctrl}
SYMBOL res 1616 224 R90
WINDOW 0 0 56 VBottom 2
WINDOW 3 32 56 VTop 2
SYMATTR InstName R23
SYMATTR Value 100k
SYMBOL res 1984 -48 R0
SYMATTR InstName R24
SYMATTR Value 100k
SYMBOL res 896 192 R0
WINDOW 3 -72 72 Left 2
SYMATTR InstName R31
SYMATTR Value 100k
SYMBOL res 2000 384 R0
SYMATTR InstName R17
SYMATTR Value 100k
SYMBOL res 1488 352 R0
SYMATTR InstName R5
SYMATTR Value 100k
SYMBOL res 2608 448 R0
SYMATTR InstName R32
SYMATTR Value 100k
TEXT 280 464 Left 2 !;tran 100m
TEXT 744 -80 Left 2 !.step oct param Vctrl 1 9 3
TEXT 520 504 Left 2 !.ac oct 15 20 20000
TEXT 1200 -120 Left 2 !.param Cap=1n
