Version 4
SHEET 1 880 680
WIRE 304 0 240 0
WIRE 848 32 576 32
WIRE 240 64 208 64
WIRE 304 64 304 0
WIRE 432 64 304 64
WIRE 304 80 304 64
WIRE 512 80 496 80
WIRE 128 96 128 64
WIRE 128 96 -256 96
WIRE 160 96 128 96
WIRE 576 112 576 32
WIRE 608 112 576 112
WIRE 432 160 432 96
WIRE 512 160 512 80
WIRE 608 160 512 160
WIRE 816 160 784 160
WIRE 848 160 848 32
WIRE 848 160 816 160
WIRE 816 288 816 160
WIRE 816 288 96 288
WIRE 160 304 160 224
WIRE 160 304 144 304
WIRE 512 304 512 160
WIRE 512 304 160 304
WIRE 592 336 528 336
WIRE 96 352 96 288
WIRE 144 352 96 352
WIRE 496 352 480 352
WIRE 592 352 592 336
WIRE 336 368 208 368
WIRE 496 368 496 352
WIRE 528 368 496 368
WIRE -160 384 -224 384
WIRE -144 384 -160 384
WIRE 144 416 -16 416
WIRE -256 656 -256 96
WIRE 592 656 592 352
WIRE 592 656 -256 656
FLAG 272 48 Vcc
IOPIN 272 48 BiDir
FLAG 464 48 Vcc
IOPIN 464 48 BiDir
FLAG 64 -32 Vcc
IOPIN 64 -32 BiDir
FLAG 64 48 0
FLAG 272 112 0
FLAG 464 112 0
FLAG -16 48 0
FLAG -16 -32 Bias
IOPIN -16 -32 BiDir
FLAG 240 176 0
FLAG 208 240 0
FLAG 352 160 Bias
IOPIN 352 160 BiDir
FLAG 368 384 0
FLAG 368 320 Vcc
IOPIN 368 320 BiDir
FLAG 336 416 0
FLAG 480 416 0
FLAG -160 528 0
FLAG -224 464 0
FLAG 560 384 0
FLAG 560 320 Vcc
IOPIN 560 320 BiDir
SYMBOL voltage 64 -48 R0
WINDOW 123 0 0 Left 0
WINDOW 39 0 0 Left 0
SYMATTR InstName V1
SYMATTR Value 9
SYMBOL Opamps\\UniversalOpamp2 272 80 R0
SYMATTR InstName U1
SYMBOL Opamps\\UniversalOpamp2 464 80 R0
SYMATTR InstName U2
SYMBOL voltage -16 -48 R0
WINDOW 123 0 0 Left 0
WINDOW 39 0 0 Left 0
SYMATTR InstName V3
SYMATTR Value 4.5
SYMBOL res 224 80 R0
SYMATTR InstName R1
SYMATTR Value 50k
SYMBOL res 256 80 R90
WINDOW 0 0 56 VBottom 2
WINDOW 3 32 56 VTop 2
SYMATTR InstName R2
SYMATTR Value 50k
SYMBOL res 224 48 R90
WINDOW 0 0 56 VBottom 2
WINDOW 3 32 56 VTop 2
SYMATTR InstName R3
SYMATTR Value 100k
SYMBOL res 224 160 R180
WINDOW 0 36 76 Left 2
WINDOW 3 36 40 Left 2
SYMATTR InstName R4
SYMATTR Value 50k
SYMBOL cap 224 0 R0
SYMATTR InstName C1
SYMATTR Value 10n
SYMBOL nmos 160 144 R0
SYMATTR InstName M1
SYMBOL res 528 144 R90
WINDOW 0 0 56 VBottom 2
WINDOW 3 32 56 VTop 2
SYMATTR InstName R5
SYMATTR Value 100k
SYMBOL res 448 144 R90
WINDOW 0 0 56 VBottom 2
WINDOW 3 32 56 VTop 2
SYMATTR InstName R6
SYMATTR Value 51k
SYMBOL Digital\\xor 192 320 R0
SYMATTR InstName A1
SYMBOL Opamps\\UniversalOpamp2 368 352 R0
SYMATTR InstName U3
SYMBOL voltage 336 320 R0
WINDOW 123 0 0 Left 0
WINDOW 39 0 0 Left 0
SYMATTR InstName V5
SYMATTR Value 0.5
SYMBOL res 496 336 R90
WINDOW 0 0 56 VBottom 2
WINDOW 3 32 56 VTop 2
SYMATTR InstName R7
SYMATTR Value 5.1k
SYMBOL cap 464 352 R0
SYMATTR InstName C2
SYMATTR Value 0.47µ
SYMBOL SpecialFunctions\\modulate -160 384 R0
SYMATTR InstName A2
SYMATTR SpiceLine mark=1000 space=100
SYMBOL voltage -160 432 R0
WINDOW 123 0 0 Left 0
WINDOW 39 0 0 Left 0
SYMATTR InstName V2
SYMATTR Value 1
SYMBOL voltage -224 368 R0
WINDOW 123 0 0 Left 0
WINDOW 39 0 0 Left 0
SYMATTR InstName V4
SYMATTR Value SINE(0.5 0.5 2)
SYMBOL Opamps\\UniversalOpamp2 560 352 R0
SYMATTR InstName U4
SYMBOL Digital\\dflop 688 64 R0
SYMATTR InstName A3
TEXT -88 310 Left 2 !.tran 1 startup
