Version 4
SHEET 1 880 680
WIRE 192 -160 160 -160
WIRE 304 -160 192 -160
WIRE 160 -112 160 -128
WIRE 160 -112 96 -112
WIRE 224 -112 160 -112
WIRE 224 -96 224 -112
WIRE 240 -96 240 -128
WIRE 240 -96 224 -96
WIRE 192 -64 192 -160
WIRE 224 -32 224 -96
FLAG 304 -80 0
FLAG 192 0 0
FLAG 96 32 0
FLAG 160 64 0
FLAG 16 32 0
FLAG 0 -128 0
SYMBOL voltage 304 -176 R0
WINDOW 123 0 0 Left 0
WINDOW 39 0 0 Left 0
SYMATTR InstName V1
SYMATTR Value 9
SYMBOL Opamps\\UniversalOpamp2 192 -32 R0
SYMATTR InstName U1
SYMBOL res 112 -64 R90
WINDOW 0 0 56 VBottom 2
WINDOW 3 32 56 VTop 2
SYMATTR InstName R1
SYMATTR Value 100k
SYMBOL res 112 48 R180
WINDOW 0 36 76 Left 2
WINDOW 3 36 40 Left 2
SYMATTR InstName R2
SYMATTR Value 100
SYMBOL cap 80 -112 R0
SYMATTR InstName C1
SYMATTR Value 47n
SYMBOL cap 160 -64 R90
WINDOW 0 0 32 VBottom 2
WINDOW 3 32 32 VTop 2
SYMATTR InstName C2
SYMATTR Value 47n
SYMBOL voltage 160 -32 R0
WINDOW 123 0 0 Left 0
WINDOW 39 0 0 Left 0
SYMATTR InstName V2
SYMATTR Value 5
SYMBOL voltage 16 -64 R0
WINDOW 123 0 0 Left 0
WINDOW 39 0 0 Left 0
SYMATTR InstName V3
SYMATTR Value PULSE(0 9 1m 1n 1n 1m)
SYMBOL res 144 -144 R0
SYMATTR InstName R3
SYMATTR Value 4700k
SYMBOL voltage 96 -128 R90
WINDOW 123 0 0 Left 0
WINDOW 39 0 0 Left 0
SYMATTR InstName V4
SYMATTR Value 5
TEXT -18 88 Left 2 !.tran 1
TEXT 392 0 Left 2 !.step dec param Rdecay 100k 1000k 2
