Version 4
SHEET 1 880 772
WIRE -144 128 -288 128
WIRE 80 144 48 144
WIRE 384 144 192 144
WIRE 144 160 144 144
WIRE 192 160 192 144
WIRE 192 160 144 160
WIRE 464 160 448 160
WIRE -144 176 -144 128
WIRE -32 176 -32 144
WIRE -32 176 -144 176
WIRE 0 176 -32 176
WIRE 464 176 464 160
WIRE 272 288 208 288
WIRE 464 288 464 176
WIRE 464 288 272 288
WIRE 128 304 128 288
WIRE 128 304 0 304
WIRE 272 368 272 288
WIRE 272 368 -16 368
WIRE 464 368 320 368
WIRE 320 416 320 368
WIRE 192 496 176 496
WIRE 224 496 192 496
WIRE 432 496 416 496
WIRE -16 560 -16 368
WIRE 224 560 -16 560
FLAG -80 112 0
FLAG -80 32 VCC
IOPIN -80 32 BiDir
FLAG 112 128 VCC
IOPIN 112 128 BiDir
FLAG 416 128 VCC
IOPIN 416 128 BiDir
FLAG 304 256 0
FLAG 80 256 0
FLAG 112 192 0
FLAG 416 192 0
FLAG -288 208 0
FLAG 48 320 0
FLAG 16 496 0
FLAG 384 672 0
FLAG 256 752 0
FLAG 464 448 0
FLAG 432 576 0
FLAG 192 432 0
FLAG 432 432 0
SYMBOL voltage 304 160 R0
WINDOW 123 0 0 Left 0
WINDOW 39 0 0 Left 0
SYMATTR InstName V1
SYMATTR Value 4.7
SYMBOL voltage -80 16 R0
WINDOW 123 0 0 Left 0
WINDOW 39 0 0 Left 0
SYMATTR InstName V2
SYMATTR Value 9
SYMBOL res 400 160 R90
WINDOW 0 0 56 VBottom 2
WINDOW 3 32 56 VTop 2
SYMATTR InstName R1
SYMATTR Value 100k
SYMBOL res 480 160 R90
WINDOW 0 0 56 VBottom 2
WINDOW 3 32 56 VTop 2
SYMATTR InstName R2
SYMATTR Value 51k
SYMBOL res 64 128 R90
WINDOW 0 0 56 VBottom 2
WINDOW 3 9 123 VTop 2
SYMATTR InstName R3
SYMATTR Value 1000k
SYMBOL res 96 160 R90
WINDOW 0 0 56 VBottom 2
WINDOW 3 15 109 VTop 2
SYMATTR InstName R4
SYMATTR Value 20k
SYMBOL res 64 240 R180
WINDOW 0 36 76 Left 2
WINDOW 3 32 28 Left 2
SYMATTR InstName R5
SYMATTR Value 500k
SYMBOL res 96 272 R180
WINDOW 0 34 77 Left 2
WINDOW 3 -46 41 Left 2
SYMATTR InstName R6
SYMATTR Value 20k
SYMBOL voltage -288 112 R0
WINDOW 123 0 0 Left 0
WINDOW 39 0 0 Left 0
SYMATTR InstName V3
SYMATTR Value 9
SYMBOL nmos 0 224 R0
SYMATTR InstName M1
SYMATTR Value 2N7002
SYMBOL cap 144 128 R90
WINDOW 0 0 32 VBottom 2
WINDOW 3 32 32 VTop 2
SYMATTR InstName C1
SYMATTR Value 100n
SYMBOL Opamps\\UniversalOpamp2 112 160 R0
SYMATTR InstName U1
SYMBOL Opamps\\UniversalOpamp2 416 160 R0
SYMATTR InstName U2
SYMBOL res 224 272 R90
WINDOW 0 0 56 VBottom 2
WINDOW 3 32 56 VTop 2
SYMATTR InstName R7
SYMATTR Value 10k
SYMBOL voltage 112 496 R90
WINDOW 123 0 0 Left 0
WINDOW 39 0 0 Left 0
SYMATTR InstName V4
SYMATTR Value SINE(0 1 300)
SYMBOL Switches\\ADG1611 320 544 R0
SYMATTR InstName U3
SYMBOL voltage 464 352 R0
WINDOW 123 0 0 Left 0
WINDOW 39 0 0 Left 0
SYMATTR InstName V5
SYMATTR Value 12
SYMBOL voltage 256 656 R0
WINDOW 123 0 0 Left 0
WINDOW 39 0 0 Left 0
SYMATTR InstName V6
SYMATTR Value -12
SYMBOL res 416 480 R0
SYMATTR InstName R8
SYMATTR Value 100k
SYMBOL res 192 480 R90
WINDOW 0 0 56 VBottom 2
WINDOW 3 32 56 VTop 2
SYMATTR InstName R9
SYMATTR Value 1k
SYMBOL cap 176 432 R0
SYMATTR InstName C2
SYMATTR Value 1n
SYMBOL cap 416 432 R0
SYMATTR InstName C3
SYMATTR Value 1n
TEXT -152 344 Left 2 !.tran 3 startup
