Version 4
SHEET 1 944 900
WIRE 256 32 208 32
WIRE 144 96 144 32
WIRE 256 96 256 32
WIRE 256 96 224 96
WIRE 288 96 256 96
WIRE 144 144 144 96
WIRE 224 144 208 144
WIRE 288 144 288 96
WIRE 176 176 176 -16
WIRE 32 192 32 176
WIRE 32 192 -64 192
WIRE 64 192 32 192
WIRE 144 192 144 144
WIRE 224 208 224 144
WIRE 224 208 208 208
WIRE 32 224 32 192
WIRE 80 224 32 224
WIRE -64 240 -64 192
WIRE 176 272 176 240
WIRE 80 448 80 224
WIRE 928 464 416 464
WIRE 528 496 464 496
WIRE 528 576 528 496
WIRE 304 608 224 608
WIRE 384 608 304 608
WIRE 736 624 720 624
WIRE 800 624 736 624
WIRE 304 640 304 608
WIRE 224 656 224 608
WIRE 416 656 416 464
WIRE 448 656 416 656
WIRE 592 656 528 656
WIRE 768 656 720 656
WIRE 352 688 352 496
WIRE 448 688 448 656
WIRE 592 688 528 688
WIRE 736 688 736 624
WIRE 736 688 720 688
WIRE 320 704 304 704
WIRE 928 704 928 464
WIRE 928 704 800 704
WIRE 384 720 384 608
WIRE 512 720 384 720
WIRE 752 720 720 720
WIRE 80 736 80 544
WIRE 304 736 304 704
WIRE 352 784 352 752
WIRE 752 864 752 720
FLAG 176 -96 0
FLAG 176 352 0
FLAG -80 320 0
FLAG -64 320 0
FLAG 144 224 0
FLAG 352 416 0
FLAG 352 864 0
FLAG 320 736 0
FLAG 32 672 0
FLAG 224 800 0
FLAG 512 784 0
FLAG 768 736 0
FLAG 720 800 0
FLAG 464 576 0
FLAG 448 768 0
FLAG 592 880 0
SYMBOL voltage -64 224 R0
WINDOW 123 0 0 Left 0
WINDOW 39 0 0 Left 0
SYMATTR InstName V1
SYMATTR Value SINE(0 1 100)
SYMBOL voltage 176 0 R180
WINDOW 123 0 0 Left 0
WINDOW 39 0 0 Left 0
SYMATTR InstName V2
SYMATTR Value 9
SYMBOL voltage 176 256 R0
WINDOW 123 0 0 Left 0
WINDOW 39 0 0 Left 0
SYMATTR InstName V3
SYMATTR Value -9
SYMBOL Opamps\\OP07 176 144 R0
SYMATTR InstName U1
SYMBOL res 160 176 R90
WINDOW 0 0 56 VBottom 2
WINDOW 3 32 56 VTop 2
SYMATTR InstName R1
SYMATTR Value 5k
SYMBOL res 240 80 R90
WINDOW 0 0 56 VBottom 2
WINDOW 3 32 56 VTop 2
SYMATTR InstName R2
SYMATTR Value 10k
SYMBOL diode 144 160 R270
WINDOW 0 32 32 VTop 2
WINDOW 3 0 32 VBottom 2
SYMATTR InstName D1
SYMATTR Value 1N4148
SYMBOL diode 224 160 R270
WINDOW 0 32 32 VTop 2
WINDOW 3 0 32 VBottom 2
SYMATTR InstName D2
SYMATTR Value 1N4148
SYMBOL cap 144 16 M90
WINDOW 0 0 32 VBottom 2
WINDOW 3 32 32 VTop 2
SYMATTR InstName C1
SYMATTR Value 100n
SYMBOL voltage 352 512 R180
WINDOW 123 0 0 Left 0
WINDOW 39 0 0 Left 0
SYMATTR InstName V4
SYMATTR Value 9
SYMBOL voltage 352 768 R0
WINDOW 123 0 0 Left 0
WINDOW 39 0 0 Left 0
SYMATTR InstName V5
SYMATTR Value -9
SYMBOL Opamps\\OP07 352 656 R0
SYMATTR InstName U2
SYMBOL schottky 144 720 R90
WINDOW 0 0 32 VBottom 2
WINDOW 3 32 32 VTop 2
SYMATTR InstName D5
SYMATTR Value BAT54
SYMATTR Description Diode
SYMATTR Type diode
SYMBOL njf 32 448 R0
SYMATTR InstName J1
SYMBOL res 16 496 R0
SYMATTR InstName R5
SYMATTR Value 100k
SYMBOL voltage 32 576 R0
WINDOW 3 -390 14 Left 2
WINDOW 123 0 0 Left 0
WINDOW 39 0 0 Left 0
SYMATTR InstName V6
SYMATTR Value PULSE(-9 9 0.1 1m 1m 0.4 0.7)
SYMBOL res 240 720 R90
WINDOW 0 0 56 VBottom 2
WINDOW 3 32 56 VTop 2
SYMATTR InstName R3
SYMATTR Value 100k
SYMBOL res 320 720 R90
WINDOW 0 0 56 VBottom 2
WINDOW 3 32 56 VTop 2
SYMATTR InstName R4
SYMATTR Value 56k
SYMBOL res 208 640 R0
SYMATTR InstName R6
SYMATTR Value 1500k
SYMBOL cap 288 640 R0
SYMATTR InstName C2
SYMATTR Value 47n
SYMBOL cap 208 736 R0
SYMATTR InstName C3
SYMATTR Value 100n
SYMBOL AutoGenerated\\HALF13700 656 672 R0
SYMATTR InstName U3
SYMBOL res 608 704 R90
WINDOW 0 0 56 VBottom 2
WINDOW 3 32 56 VTop 2
SYMATTR InstName R7
SYMATTR Value 100k
SYMBOL res 544 640 R90
WINDOW 0 0 56 VBottom 2
WINDOW 3 32 56 VTop 2
SYMATTR InstName R9
SYMATTR Value 470
SYMBOL res 544 672 R90
WINDOW 0 0 56 VBottom 2
WINDOW 3 32 56 VTop 2
SYMATTR InstName R10
SYMATTR Value 470
SYMBOL res 512 560 R0
SYMATTR InstName R11
SYMATTR Value 10k
SYMBOL res 784 608 R0
SYMATTR InstName R12
SYMATTR Value 100k
SYMBOL voltage 768 640 R0
WINDOW 123 0 0 Left 0
WINDOW 39 0 0 Left 0
SYMATTR InstName V7
SYMATTR Value 9
SYMBOL res 704 704 R0
SYMATTR InstName R13
SYMATTR Value 10k
SYMBOL voltage 464 480 R0
WINDOW 123 0 0 Left 0
WINDOW 39 0 0 Left 0
SYMATTR InstName V8
SYMATTR Value PULSE(5.5 4.5 0.004 0 0 0.004 0.008)
SYMBOL voltage 448 672 R0
WINDOW 123 0 0 Left 0
WINDOW 39 0 0 Left 0
SYMATTR InstName V9
SYMATTR Value 5
SYMBOL res 576 704 R0
SYMATTR InstName R14
SYMATTR Value 100k
SYMBOL voltage 592 784 R0
WINDOW 123 0 0 Left 0
WINDOW 39 0 0 Left 0
SYMATTR InstName V10
SYMATTR Value 2
TEXT -100 376 Left 2 !.tran 1
